CPDS_validation_cosim/Distribution/Bus11/IEEE8500/IEEE8500_VLL.Txt

SYMMETRICAL COMPONENT PHASE-PHASE VOLTAGES BY BUS (for 3-phase buses)

Bus                   Mag:   V1 (kV)    p.u.     V2 (kV)   %V2/V1    V0 (kV)    %V0/V1

sourcebus                120.7       1.05  1.543E-006  1.278E-006 1.312E-014 1.086E-014
_hvmv_sub_lsb               13      1.043     0.0153     0.1177 1.875E-015 1.442E-014
hvmv_sub_48332              13      1.043     0.0153     0.1177 1.592E-015 1.224E-014
m1009763                 11.64     0.9331     0.2489      2.139 1.364E-015 1.172E-014
l2673322                 6.626     0.5314          0          0         0         0
m1069148                 7.074     0.5673          0          0         0         0
l2673309                 7.074     0.5672          0          0         0         0
m1069588                 6.864     0.5504          0          0         0         0
l2804270                 6.863     0.5504          0          0         0         0
m3036164                 6.517     0.5226          0          0         0         0
l2935553                 6.516     0.5225          0          0         0         0
m1209749                 7.366     0.5907          0          0         0         0
l2748840                 7.366     0.5907          0          0         0         0
m1108264                 6.957     0.5579          0          0         0         0
m1108263                 6.957     0.5579          0          0         0         0
l3085398                 11.69     0.9374     0.2358      2.017 1.819E-015 1.556E-014
m1026891                 11.68     0.9369     0.2372       2.03 1.438E-015 1.231E-014
l3216367                 11.68     0.9363     0.1912      1.638 1.819E-015 1.558E-014
m1069468                 11.67     0.9362     0.1911      1.637 2.449E-015 2.098E-014
m1142800                 7.212     0.5784          0          0         0         0
m1142799                 7.212     0.5783          0          0         0         0
m1047592                 11.81     0.9473     0.2116      1.791 1.364E-015 1.155E-014
p827512                  7.141     0.5727          0          0         0         0
m1047339                 11.98     0.9608     0.1185     0.9888 1.875E-015 1.565E-014
p895104                  6.901     0.5534          0          0         0         0
m1026915                 11.69     0.9374     0.2351      2.011 1.137E-015 9.726E-015
m1026920                 11.69     0.9372     0.2352      2.012 1.364E-015 1.167E-014
n1138596                 6.524     0.5232          0          0         0         0
l3254207                 6.524     0.5232          0          0         0         0
m1069464                 11.67     0.9359     0.1909      1.636 1.819E-015 1.559E-014
p873787                  6.632     0.5319          0          0         0         0
n1144665                 11.83     0.9486     0.2003      1.694 9.095E-016 7.689E-015
m1047515                 11.82      0.948     0.2002      1.694 1.364E-015 1.154E-014
n1137002                 6.573     0.5271          0          0         0         0
m1047707                 6.573     0.5271          0          0         0         0
l2729406                 7.151     0.5735          0          0         0         0
l2897768                 7.151     0.5734          0          0         0         0
l3649301                 6.554     0.5256          0          0         0         0
l3649302                 6.554     0.5256          0          0         0         0
l2970842                 6.979     0.5597          0          0         0         0
m1089113                 6.978     0.5596          0          0         0         0
m1047312                 11.94     0.9575      0.128      1.072 1.875E-015 1.57E-014
p893163                   6.87     0.5509          0          0         0         0
l2822871                 11.73     0.9407     0.2298      1.959 1.364E-015 1.163E-014
m1026872                 11.73     0.9405     0.2303      1.963 1.364E-015 1.163E-014
m1026312                 6.617     0.5306          0          0         0         0
l2973163                 6.615     0.5305          0          0         0         0
l3728038                 6.544     0.5248          0          0         0         0
l3728039                 6.544     0.5247          0          0         0         0
m1069567                 6.876     0.5514          0          0         0         0
m1069582                 6.867     0.5507          0          0         0         0
n1140830                 6.428     0.5154          0          0         0         0
l3216351                 6.427     0.5154          0          0         0         0
l2952007                 7.316     0.5867          0          0         0         0
l2861158                 7.315     0.5866          0          0         0         0
n1140827                 11.63     0.9327     0.2037      1.751 1.137E-015 9.774E-015
m1026726                 11.63     0.9327     0.2037      1.751 1.224E-015 1.053E-014
l2730106                 12.37     0.9921     0.1145     0.9258 1.655E-015 1.338E-014
n1142099                 12.37     0.9919      0.115     0.9296 1.875E-015 1.516E-014
m1026658                 11.62     0.9319     0.2009      1.729 1.819E-015 1.565E-014
l3172805                 6.426     0.5153          0          0         0         0
p895112                  7.239     0.5805          0          0         0         0
l3048962                 7.239     0.5805          0          0         0         0
l2991914                 11.76     0.9433     0.1992      1.693 1.875E-015 1.594E-014
m1047503                 11.76      0.943     0.1991      1.693 1.438E-015 1.223E-014
m1047751                 6.534      0.524          0          0         0         0
l2973154                 6.534      0.524          0          0         0         0
l3010565                 7.071      0.567          0          0         0         0
l2897775                 7.071      0.567          0          0         0         0
m1125955                 7.336     0.5883          0          0         0         0
m1125957                 7.336     0.5883          0          0         0         0
m1069640                 6.842     0.5486          0          0         0         0
l2804269                 6.841     0.5486          0          0         0         0
m1026702                 11.66     0.9347     0.2038      1.748 1.592E-015 1.366E-014
n1139551                 11.65     0.9339     0.2046      1.757 2.274E-015 1.952E-014
n1136355                 6.913     0.5544          0          0         0         0
l2783231                 6.907     0.5539          0          0         0         0
l2748143                 6.837     0.5482          0          0         0         0
l3251854                 6.836     0.5482          0          0         0         0
m1069610                 6.852     0.5495          0          0         0         0
m1069600                 6.852     0.5495          0          0         0         0
m1069424                 11.65     0.9338     0.1895      1.627 1.655E-015 1.421E-014
l2935549                 11.64     0.9336     0.1894      1.627 1.438E-015 1.235E-014
p895089                  7.298     0.5853          0          0         0         0
l3235242                 7.298     0.5853          0          0         0         0
m1026795                 11.73     0.9405     0.1996      1.702 1.137E-015 9.694E-015
n1140522                  7.07      0.567          0          0         0         0
l3030199                  12.6       1.01    0.05709     0.4532 1.592E-015 1.263E-014
m1125934                  12.6       1.01    0.05702     0.4526 1.875E-015 1.488E-014
m1069189                 12.16     0.9754    0.06353     0.5223 1.224E-015 1.007E-014
l2860487                 7.089     0.5684          0          0         0         0
221-312488               12.38     0.9928     0.1095     0.8848 1.655E-015 1.337E-014
m1089183                 12.38     0.9928     0.1095     0.8848 1.224E-015 9.891E-015
m1108464                 7.071     0.5671          0          0         0         0
l3102286                 7.071      0.567          0          0         0         0
f739845                  11.91     0.9554     0.1333      1.119 2.096E-015 1.76E-014
293471                   11.91     0.9554     0.1333      1.119 1.875E-015 1.574E-014
p827499                   6.53     0.5236          0          0         0         0
n1139254                  6.53     0.5236          0          0         0         0
m1026657                 6.423     0.5151          0          0         0         0
m1026656                 6.423      0.515          0          0         0         0
m1108299                 7.186     0.5763          0          0         0         0
m1108300                 7.186     0.5763          0          0         0         0
l3198355                 7.186     0.5762          0          0         0         0
l2805037                 7.186     0.5762          0          0         0         0
n1137994                 7.053     0.5656          0          0         0         0
m1069484                 7.052     0.5655          0          0         0         0
l2860504                 6.428     0.5155          0          0         0         0
l2860493                 6.428     0.5155          0          0         0         0
m1026783                 11.72     0.9397        0.2      1.707 1.364E-015 1.164E-014
m1026780                 11.72     0.9396     0.2001      1.708 1.364E-015 1.164E-014
p895111                  7.348     0.5893          0          0         0         0
l2895496                 7.348     0.5892          0          0         0         0
n1140819                 11.64     0.9332      0.204      1.754 1.438E-015 1.236E-014
m1026700                 11.63      0.933     0.2039      1.753 1.655E-015 1.423E-014
m1089173                 7.154     0.5737          0          0         0         0
l2935551                 7.153     0.5736          0          0         0         0
m1026344                 6.812     0.5463          0          0         0         0
m1026364                 6.812     0.5463          0          0         0         0
l2879070                  11.8     0.9464     0.2141      1.814 1.655E-015 1.403E-014
l3216345                  11.8     0.9459      0.216      1.831 1.592E-015 1.349E-014
m1069428                 11.65     0.9341     0.1896      1.627 1.819E-015 1.562E-014
n1139257                 6.609       0.53          0          0         0         0
l2991919                 6.809      0.546          0          0         0         0
m1026361                 6.806     0.5458          0          0         0         0
n1147857                 6.439     0.5164          0          0         0         0
m1009742                 6.438     0.5162          0          0         0         0
q14412                   11.97       0.96     0.1211      1.012 1.592E-015 1.33E-014
m1047325                 11.97     0.9597     0.1218      1.018 1.224E-015 1.023E-014
n1139263                 6.539     0.5244          0          0         0         0
l3048227                 6.539     0.5244          0          0         0         0
p827506                  6.539     0.5244          0          0         0         0
m1069469                 6.539     0.5244          0          0         0         0
m1027019                 6.633     0.5319          0          0         0         0
l2785522                 6.633     0.5319          0          0         0         0
l3216338                 6.581     0.5277          0          0         0         0
l2973146                 6.581     0.5277          0          0         0         0
m3037452                   6.8     0.5453          0          0         0         0
l2973164                 6.799     0.5453          0          0         0         0
l3120376                 6.516     0.5226          0          0         0         0
m1026925                 6.515     0.5224          0          0         0         0
m1047612                 7.148     0.5732          0          0         0         0
p828360                  7.148     0.5732          0          0         0         0
m1089195                 7.298     0.5852          0          0         0         0
l3141393                 7.298     0.5852          0          0         0         0
m1026946                 6.648     0.5331          0          0         0         0
m1026940                 6.648     0.5331          0          0         0         0
m1047471                 6.483     0.5199          0          0         0         0
l3216349                 6.483     0.5199          0          0         0         0
m1047401                  6.38     0.5116          0          0         0         0
l2748132                  6.38     0.5116          0          0         0         0
l3122820                 6.405     0.5136          0          0         0         0
l3141398                 6.405     0.5136          0          0         0         0
m1108360                 7.226     0.5795          0          0         0         0
l3048968                 7.226     0.5794          0          0         0         0
l2801950                 7.052     0.5655          0          0         0         0
m1069224                 7.051     0.5654          0          0         0         0
l2766746                 7.028     0.5636          0          0         0         0
m1027073                 7.026     0.5634          0          0         0         0
m1142873                 7.347     0.5892          0          0         0         0
m1069181                 7.006     0.5619          0          0         0         0
l2973151                 7.005     0.5617          0          0         0         0
l3179682                 7.307      0.586          0          0         0         0
l2786274                 7.307      0.586          0          0         0         0
l3066816                 6.427     0.5154          0          0         0         0
m1026667                 6.426     0.5153          0          0         0         0
m1108529                 12.31     0.9871     0.1286      1.044 1.364E-015 1.108E-014
m1108532                 12.31      0.987      0.129      1.048 1.592E-015 1.293E-014
l2766723                 6.428     0.5154          0          0         0         0
l3122822                 6.428     0.5154          0          0         0         0
l2673312                  6.43     0.5156          0          0         0         0
l3235247                  6.43     0.5156          0          0         0         0
m1166391                 7.331     0.5879          0          0         0         0
l3254873                 7.327     0.5875          0          0         0         0
l2861157                  7.37      0.591          0          0         0         0
p901951                  7.367     0.5907          0          0         0         0
m1047346                    12     0.9621     0.1144     0.9539 1.364E-015 1.137E-014
m1047345                 11.99     0.9618     0.1155     0.9631 1.875E-015 1.563E-014
l2989596                 6.884     0.5521          0          0         0         0
l2822873                 6.884     0.5521          0          0         0         0
m1108328                 7.284     0.5841          0          0         0         0
l2875754                 7.283     0.5841          0          0         0         0
l2786204                 7.434     0.5961          0          0         0         0
m1209819                 7.429     0.5958          0          0         0         0
p901972                  6.437     0.5162          0          0         0         0
m1009726                 6.435      0.516          0          0         0         0
m1047702                 6.573     0.5271          0          0         0         0
n1137001                 6.573     0.5271          0          0         0         0
l2767340                 12.44     0.9975    0.09723     0.7817 1.364E-015 1.097E-014
m3037449                 12.44     0.9975    0.09723     0.7817 1.655E-015 1.331E-014
m1047457                  6.49     0.5204          0          0         0         0
l2710546                 6.489     0.5204          0          0         0         0
l2674027                 12.32     0.9883     0.1255      1.018 1.438E-015 1.167E-014
l2692633                 12.32     0.9879     0.1267      1.028 1.592E-015 1.292E-014
n1142108                 7.277     0.5835          0          0         0         0
l2674051                 7.277     0.5835          0          0         0         0
m1069135                 12.03     0.9644      0.108     0.8983 1.438E-015 1.196E-014
r18242                   12.02      0.964     0.1096     0.9118 1.364E-015 1.135E-014
m1047534                 11.94     0.9572     0.1952      1.635 1.438E-015 1.205E-014
n1136663                 11.91     0.9551     0.1979      1.662 1.592E-015 1.336E-014
m1108508                 7.303     0.5856          0          0         0         0
l3097861                 7.303     0.5856          0          0         0         0
m1069560                  6.88     0.5518          0          0         0         0
l2973153                 11.79     0.9457     0.2227      1.888 2.046E-015 1.735E-014
n1136998                 11.79     0.9456     0.2231      1.892 1.875E-015 1.59E-014
l2898515                 7.399     0.5933          0          0         0         0
m1166387                 7.398     0.5933          0          0         0         0
m1047442                 6.516     0.5225          0          0         0         0
l3235250                 6.516     0.5225          0          0         0         0
m1142871                 12.57      1.008    0.07029     0.5592 1.592E-015 1.266E-014
m1142874                 12.56      1.008    0.07105     0.5654 1.655E-015 1.317E-014
l2955081                 12.57      1.008    0.05589     0.4445 1.875E-015 1.491E-014
m1108315                 12.57      1.008    0.05583     0.4441 2.319E-015 1.844E-014
l2973162                 11.86     0.9509     0.1572      1.326 1.875E-015 1.581E-014
m1026333                 11.86     0.9508     0.1583      1.335 1.833E-015 1.546E-014
m1009832                 6.588     0.5283          0          0         0         0
l2860479                 6.588     0.5283          0          0         0         0
m1026854                 11.76     0.9431     0.2248      1.911 1.655E-015 1.408E-014
p901894                   6.53     0.5236          0          0         0         0
m1026485                 6.751     0.5414          0          0         0         0
m1026492                 6.751     0.5414          0          0         0         0
d6413567-3_int           12.14     0.9738     0.0697      0.574 1.875E-015 1.544E-014
e182724                  12.14     0.9738    0.06973     0.5742 1.655E-015 1.363E-014
n1139541                 12.15      0.974    0.06906     0.5686 1.364E-015 1.123E-014
m4122658                 12.39     0.9933     0.1108     0.8946 1.364E-015 1.101E-014
l2933135                 12.39     0.9933     0.1108     0.8949 1.819E-015 1.469E-014
l2729414                 11.66     0.9347     0.2038      1.748 1.819E-015 1.561E-014
l2729430                 6.622      0.531          0          0         0         0
l2766742                 6.615     0.5305          0          0         0         0
m1026972                 6.519     0.5228          0          0         0         0
l2860483                 6.519     0.5228          0          0         0         0
l2860490                 12.01      0.963      0.112      0.933 2.274E-015 1.893E-014
l3104134                    12     0.9625     0.1134     0.9449 1.592E-015 1.326E-014
m1089144                 7.159     0.5741          0          0         0         0
p827522                  7.159     0.5741          0          0         0         0
m1089118                 12.22     0.9803    0.05978     0.4891 1.875E-015 1.534E-014
l3048208                 7.083      0.568          0          0         0         0
m1108505                 12.34     0.9894     0.1225     0.9927 1.364E-015 1.106E-014
l2955047                 12.33     0.9891     0.1234      1.001 1.592E-015 1.29E-014
m1089148                 7.156     0.5739          0          0         0         0
l2766721                 7.156     0.5739          0          0         0         0
m1026745                  6.48     0.5196          0          0         0         0
l3029183                  6.48     0.5196          0          0         0         0
l2710512                 6.494     0.5208          0          0         0         0
m1047828                  6.49     0.5205          0          0         0         0
m1047342                  6.91     0.5541          0          0         0         0
l3197645                  6.91     0.5541          0          0         0         0
m1069192                 7.011     0.5622          0          0         0         0
l3235253                 7.011     0.5622          0          0         0         0
l3214071                 12.51      1.003    0.08238     0.6587 1.364E-015 1.091E-014
m1125952                  12.5      1.002    0.08351     0.6681 1.819E-015 1.455E-014
m1027101                 6.491     0.5205          0          0         0         0
l2860480                 6.491     0.5205          0          0         0         0
l2710517                 6.407     0.5138          0          0         0         0
m1026646                 6.405     0.5137          0          0         0         0
m1069662                  6.84     0.5485          0          0         0         0
l2935547                  6.84     0.5485          0          0         0         0
m1026931                  6.51     0.5221          0          0         0         0
l3216336                  6.51      0.522          0          0         0         0
l3142049                 12.36     0.9913     0.1169     0.9453 1.438E-015 1.163E-014
m1108493                 12.35     0.9907     0.1186     0.9597 1.875E-015 1.518E-014
m1069169                 12.13     0.9728    0.07372     0.6077 1.875E-015 1.546E-014
l3010556                 12.12     0.9722    0.07601      0.627 1.592E-015 1.313E-014
l2991933                 7.093     0.5688          0          0         0         0
l3122837                 7.093     0.5688          0          0         0         0
l2691936                 6.509      0.522          0          0         0         0
l2897772                 6.864     0.5504          0          0         0         0
l3101814                 6.864     0.5504          0          0         0         0
l2766732                 6.752     0.5414          0          0         0         0
l2989564                 6.841     0.5486          0          0         0         0
m1126016                 6.993     0.5608          0          0         0         0
l3120534                 6.993     0.5608          0          0         0         0
m1026330                 11.85     0.9505     0.1604      1.353 1.655E-015 1.397E-014
l2766726                 6.657     0.5339          0          0         0         0
p901912                  6.715     0.5385          0          0         0         0
l3195365                 6.715     0.5385          0          0         0         0
m1108381                 12.39     0.9932     0.1095     0.8841 1.819E-015 1.469E-014
l3254237                 12.38     0.9931     0.1096     0.8847 1.364E-015 1.102E-014
l2804262                 6.527     0.5235          0          0         0         0
l2841639                 6.525     0.5233          0          0         0         0
n1230123                 7.083      0.568          0          0         0         0
l2708744                 7.081     0.5679          0          0         0         0
m1069519                 12.16     0.9751     0.1668      1.371 1.875E-015 1.542E-014
p901927                  6.922     0.5551          0          0         0         0
l2897790                 7.305     0.5858          0          0         0         0
l2935566                 7.305     0.5858          0          0         0         0
l3216337                  6.51     0.5221          0          0         0         0
p901931                  7.305     0.5858          0          0         0         0
m1069548                 7.305     0.5858          0          0         0         0
m1010013                 6.365     0.5104          0          0         0         0
l3120503                 6.365     0.5104          0          0         0         0
m1089145                 12.37     0.9916    0.05986     0.4841 1.655E-015 1.339E-014
l3215385                 12.37     0.9916    0.05985      0.484 1.364E-015 1.103E-014
m1026852                 11.75     0.9424     0.2263      1.926 1.592E-015 1.354E-014
m1069420                 11.64     0.9333     0.1892      1.626 1.819E-015 1.563E-014
l3157708                 7.113     0.5704          0          0         0         0
n1137991                 7.113     0.5704          0          0         0         0
m1108413                 7.062     0.5663          0          0         0         0
m1108460                  7.06     0.5662          0          0         0         0
p827532                   6.89     0.5525          0          0         0         0
m1047326                  6.89     0.5525          0          0         0         0
e182732                  11.69     0.9373     0.2017      1.726 1.819E-015 1.556E-014
m1026760                 11.69     0.9373     0.2017      1.726 1.819E-015 1.556E-014
l3048205                 7.216     0.5786          0          0         0         0
m1108361                 7.203     0.5776          0          0         0         0
m3036169                 6.409      0.514          0          0         0         0
l2673317                 6.409      0.514          0          0         0         0
l3178981                 6.805     0.5457          0          0         0         0
m1047368                 6.794     0.5448          0          0         0         0
n1136354                 12.16      0.975     0.1668      1.372 1.819E-015 1.496E-014
l2879794                 7.268     0.5828          0          0         0         0
m1142811                 7.268     0.5828          0          0         0         0
m1069565                 6.884     0.5521          0          0         0         0
l2785536                 6.884      0.552          0          0         0         0
l3104114                 6.602     0.5294          0          0         0         0
m1009824                 6.599     0.5292          0          0         0         0
l2745848                 11.69     0.9373     0.1917       1.64 1.364E-015 1.167E-014
l2673308                 11.69     0.9371     0.1916       1.64 1.438E-015 1.231E-014
l2991939                 11.68     0.9367     0.1914      1.639 1.819E-015 1.557E-014
l2916606                 7.235     0.5802          0          0         0         0
l2822864                 7.235     0.5802          0          0         0         0
m1142851                 12.62      1.012    0.06193     0.4909 1.655E-015 1.312E-014
196-31070                12.61      1.012    0.06219      0.493 1.364E-015 1.082E-014
m1209822                  7.39     0.5926          0          0         0         0
m1209823                 7.387     0.5924          0          0         0         0
m1069550                 6.888     0.5524          0          0         0         0
m1069551                 6.888     0.5524          0          0         0         0
l3141397                 6.519     0.5227          0          0         0         0
l3649299                 6.555     0.5257          0          0         0         0
m3772794                 6.555     0.5257          0          0         0         0
p895106                  7.127     0.5716          0          0         0         0
l3048887                 7.127     0.5715          0          0         0         0
m1047824                 6.496     0.5209          0          0         0         0
m1047834                 6.492     0.5206          0          0         0         0
m1069350                 11.61     0.9309     0.1834       1.58 1.592E-015 1.371E-014
n1144668                 11.61     0.9309     0.1831      1.577 2.046E-015 1.763E-014
l2879072                 6.531     0.5237          0          0         0         0
m1047441                 6.518     0.5227          0          0         0         0
m1108274                 6.961     0.5582          0          0         0         0
m1108269                 6.961     0.5582          0          0         0         0
l3235244                  6.52     0.5229          0          0         0         0
m1069398                  6.52     0.5228          0          0         0         0
n1147862                 6.468     0.5187          0          0         0         0
l2685805                 6.468     0.5187          0          0         0         0
m1069247                 6.528     0.5235          0          0         0         0
m1069248                 6.528     0.5235          0          0         0         0
l2786273                  6.96     0.5582          0          0         0         0
m1108278                  6.96     0.5581          0          0         0         0
l3254238                 11.92      0.956     0.1317      1.105 1.364E-015 1.144E-014
m1047303                 11.91     0.9554     0.1333      1.119 1.137E-015 9.542E-015
m1047633                 7.146     0.5731          0          0         0         0
l2897554                 7.145      0.573          0          0         0         0
m1069627                 6.839     0.5484          0          0         0         0
l2897791                 6.838     0.5483          0          0         0         0
m1089097                 6.965     0.5585          0          0         0         0
m1108270                 6.964     0.5585          0          0         0         0
n1142101                 7.031     0.5639          0          0         0         0
l2936214                 7.031     0.5639          0          0         0         0
l3066810                 7.037     0.5643          0          0         0         0
l2897769                 7.036     0.5643          0          0         0         0
m1209758                 7.367     0.5908          0          0         0         0
m1209753                 7.366     0.5907          0          0         0         0
m1047528                 11.87     0.9515      0.203      1.711 1.592E-015 1.341E-014
l2858166                 11.86     0.9515     0.2031      1.712 1.875E-015 1.58E-014
m1142843                 12.63      1.013    0.05934     0.4698 1.364E-015 1.08E-014
l3081380                 12.63      1.013    0.05905     0.4677 1.364E-015 1.08E-014
l2804272                 6.888     0.5523          0          0         0         0
l2841641                 6.887     0.5523          0          0         0         0
m1069393                 6.552     0.5254          0          0         0         0
m1069408                 6.547     0.5251          0          0         0         0
n1142104                 12.34     0.9899      0.121     0.9806 1.592E-015 1.289E-014
m1108500                 12.34     0.9896      0.122     0.9883 1.438E-015 1.165E-014
l3216348                 6.382     0.5118          0          0         0         0
l2841627                  6.38     0.5117          0          0         0         0
l2916599                 6.515     0.5224          0          0         0         0
m1047447                 6.505     0.5216          0          0         0         0
l2954349                 6.505     0.5216          0          0         0         0
l3235246                 6.496      0.521          0          0         0         0
m1125911                 7.202     0.5776          0          0         0         0
l2711224                 7.201     0.5775          0          0         0         0
n1147863                 7.104     0.5697          0          0         0         0
l3122817                 7.104     0.5697          0          0         0         0
m1186061                 12.81      1.027    0.03435     0.2682 1.655E-015 1.292E-014
l2861223                 7.369     0.5909          0          0         0         0
m1069130                 6.935     0.5561          0          0         0         0
l3085396                 6.935     0.5561          0          0         0         0
e182730                  6.494     0.5208          0          0         0         0
n1142109                 6.494     0.5208          0          0         0         0
m1069417                 11.62     0.9322     0.1885      1.621 2.046E-015 1.76E-014
n1138597                 11.62     0.9321     0.1884      1.621 1.655E-015 1.424E-014
m1026987                 6.513     0.5223          0          0         0         0
m1026990                 6.511     0.5222          0          0         0         0
m1142832                 12.62      1.012    0.05843     0.4631 1.017E-015 8.058E-015
l3160865                 12.62      1.012     0.0583     0.4621 1.819E-015 1.442E-014
l2673323                 7.093     0.5688          0          0         0         0
m1009809                 7.093     0.5688          0          0         0         0
l2822869                 11.75     0.9424      0.199      1.693 9.095E-016 7.739E-015
m1026808                 11.74     0.9417     0.1988      1.693 1.875E-015 1.597E-014
m1047825                 6.484       0.52          0          0         0         0
m1069731                 6.483     0.5199          0          0         0         0
n1140520                 7.081     0.5678          0          0         0         0
l2729410                 7.081     0.5678          0          0         0         0
l3178978                 6.401     0.5133          0          0         0         0
m1069384                 6.521      0.523          0          0         0         0
l3066805                 6.521     0.5229          0          0         0         0
m4362181                 6.489     0.5203          0          0         0         0
m1047319                  7.05     0.5653          0          0         0         0
m1047318                 7.049     0.5653          0          0         0         0
l3216358                 6.504     0.5216          0          0         0         0
m1026826                 6.503     0.5215          0          0         0         0
m1108276                 6.961     0.5582          0          0         0         0
m1089198                 12.24     0.9815     0.1464      1.196 1.875E-015 1.532E-014
m1089201                 12.23     0.9804     0.1498      1.225 9.095E-016 7.439E-015
m1047763                  11.7      0.938     0.2838      2.426 1.875E-015 1.603E-014
n1136027                 6.536     0.5241          0          0         0         0
l3101827                 7.304     0.5857          0          0         0         0
m1108540                 7.301     0.5855          0          0         0         0
m1026335                 6.812     0.5463          0          0         0         0
l2804259                 6.812     0.5463          0          0         0         0
n1136357                 7.305     0.5858          0          0         0         0
m1047513                 11.79     0.9456     0.1997      1.694 1.438E-015 1.22E-014
m1047507                 11.77     0.9441     0.1995      1.694 1.438E-015 1.221E-014
m1142863                  12.6       1.01    0.06476      0.514 1.438E-015 1.141E-014
n1141480                 7.355     0.5898          0          0         0         0
m1125916                 7.204     0.5777          0          0         0         0
l2879767                 7.203     0.5777          0          0         0         0
l3066809                 7.046      0.565          0          0         0         0
m1069487                 7.045     0.5649          0          0         0         0
m1142818                  12.6      1.011    0.05752     0.4564 2.046E-015 1.624E-014
p829965                   12.6      1.011    0.05796     0.4599 1.438E-015 1.141E-014
q14733                      12     0.9621     0.1893      1.578 1.592E-015 1.327E-014
m1047568                 11.99     0.9618     0.1896      1.581 9.095E-016 7.583E-015
m1047322                  6.89     0.5525          0          0         0         0
l2954338                 6.598     0.5291          0          0         0         0
m1047409                 6.383     0.5119          0          0         0         0
l2841648                 6.383     0.5119          0          0         0         0
m1089177                 7.152     0.5735          0          0         0         0
m1026951                 6.649     0.5332          0          0         0         0
l2954347                 6.648     0.5332          0          0         0         0
m4122657                 7.325     0.5874          0          0         0         0
l3027124                 7.324     0.5874          0          0         0         0
m1069419                 11.63     0.9326     0.1887      1.623 2.034E-015 1.749E-014
m1069418                 11.63     0.9324     0.1886      1.622 1.438E-015 1.237E-014
m1026824                 11.65      0.934     0.2455      2.108 1.224E-015 1.051E-014
p859694                  7.095     0.5689          0          0         0         0
m1047453                 6.493     0.5207          0          0         0         0
l2691948                 6.493     0.5207          0          0         0         0
p860892                   7.08     0.5678          0          0         0         0
n1139543                  7.08     0.5678          0          0         0         0
m1089205                 6.899     0.5532          0          0         0         0
n1134472                 6.899     0.5532          0          0         0         0
l2710542                 6.624     0.5312          0          0         0         0
m3032980                 12.81      1.028    0.03483     0.2718 1.438E-015 1.122E-014
m3032977                 12.78      1.025    0.03942     0.3084 1.819E-015 1.423E-014
m3763618                 11.81      0.947     0.2121      1.796 1.875E-015 1.588E-014
p1121282                 7.139     0.5725          0          0         0         0
l2917330                 7.267     0.5828          0          0         0         0
l2861222                 7.267     0.5827          0          0         0         0
m1047490                 11.74     0.9416     0.1989      1.694 1.438E-015 1.225E-014
p1164481                 6.552     0.5255          0          0         0         0
m1069356                 7.009     0.5621          0          0         0         0
m1069363                 7.009      0.562          0          0         0         0
p828359                  7.148     0.5732          0          0         0         0
l2878848                 7.147     0.5731          0          0         0         0
m1047486                 11.71     0.9393     0.1951      1.666 1.655E-015 1.413E-014
l3177665                 6.548     0.5251          0          0         0         0
l2805036                  6.96     0.5581          0          0         0         0
l2692654                 7.274     0.5833          0          0         0         0
m1125929                 7.274     0.5833          0          0         0         0
m1047669                 11.79     0.9452     0.2258      1.916 1.364E-015 1.157E-014
m1047672                 11.79     0.9451     0.2259      1.917 1.655E-015 1.404E-014
m1125919                 12.59       1.01    0.05656     0.4492 2.319E-015 1.842E-014
p829961                  7.274     0.5833          0          0         0         0
m1142819                 12.61      1.011     0.0576      0.457 2.449E-015 1.943E-014
p829960                  7.221     0.5791          0          0         0         0
p829979                  7.371     0.5911          0          0         0         0
m3036172                  7.37      0.591          0          0         0         0
m1026883                 7.137     0.5723          0          0         0         0
m1026898                 7.137     0.5723          0          0         0         0
m1089143                 12.37     0.9917    0.05988     0.4842 1.655E-015 1.339E-014
l3141400                 7.159     0.5741          0          0         0         0
m1069481                 11.69     0.9374     0.1918      1.641 2.239E-015 1.916E-014
p827507                  7.053     0.5656          0          0         0         0
m1026377                 6.802     0.5455          0          0         0         0
l3048210                 6.801     0.5454          0          0         0         0
e182722                  6.524     0.5232          0          0         0         0
m1026331                 11.85     0.9507     0.1592      1.343 2.034E-015 1.715E-014
l3214055                 7.061     0.5662          0          0         0         0
m1108295                 12.53      1.005    0.05649     0.4508 2.046E-015 1.633E-014
l2936279                 12.51      1.003    0.05671     0.4533 1.655E-015 1.323E-014
m1026704                  6.48     0.5196          0          0         0         0
l2841634                 6.479     0.5196          0          0         0         0
m1047386                 6.774     0.5432          0          0         0         0
m1047379                 6.773     0.5431          0          0         0         0
m1089115                 12.19     0.9779    0.05929     0.4862 1.655E-015 1.357E-014
m1026486                 6.751     0.5414          0          0         0         0
m1026488                 6.751     0.5414          0          0         0         0
l3010570                 6.812     0.5463          0          0         0         0
p904451                  7.065     0.5666          0          0         0         0
221-282819               7.065     0.5665          0          0         0         0
m1125968                 12.46     0.9993    0.09207     0.7389 1.364E-015 1.095E-014
p895107                  7.331     0.5879          0          0         0         0
n1136999                 6.579     0.5276          0          0         0         0
m1069412                 6.542     0.5246          0          0         0         0
l2879061                 6.542     0.5246          0          0         0         0
m1026947                 6.649     0.5332          0          0         0         0
m1142880                 7.304     0.5858          0          0         0         0
l2891575                 7.304     0.5857          0          0         0         0
m1026848                 6.491     0.5206          0          0         0         0
m1026847                 6.491     0.5205          0          0         0         0
l2897793                 6.802     0.5455          0          0         0         0
m1069521                 6.802     0.5454          0          0         0         0
m1069175                 12.15     0.9745     0.0672      0.553 1.364E-015 1.123E-014
l3197637                 7.087     0.5683          0          0         0         0
l3197635                 6.518     0.5227          0          0         0         0
l2804257                 6.634      0.532          0          0         0         0
l2860485                 6.634      0.532          0          0         0         0
l3235945                   7.3     0.5854          0          0         0         0
l2842330                 7.299     0.5854          0          0         0         0
l2804254                 6.532     0.5238          0          0         0         0
m1047752                 6.532     0.5238          0          0         0         0
m1166370                 7.402     0.5936          0          0         0         0
m1166364                 7.402     0.5936          0          0         0         0
m3763619                 11.81      0.947     0.2122      1.797 1.364E-015 1.155E-014
m3037540                 7.195      0.577          0          0         0         0
l2710509                 7.195      0.577          0          0         0         0
l2763072                 6.626     0.5314          0          0         0         0
m4118754                 6.623     0.5311          0          0         0         0
m1089196                 12.25     0.9821     0.1444      1.179 1.224E-015 9.998E-015
m1047484                 11.71     0.9389     0.1942      1.659 1.819E-015 1.554E-014
l3010560                  11.7     0.9386     0.1937      1.655 1.875E-015 1.602E-014
l3254219                 7.074     0.5673          0          0         0         0
l3254220                 7.074     0.5673          0          0         0         0
m1026648                 6.414     0.5144          0          0         0         0
m1026647                 6.413     0.5142          0          0         0         0
m1089112                 12.18     0.9766    0.05908     0.4851 1.875E-015 1.54E-014
l2691951                 7.087     0.5683          0          0         0         0
m1108433                 7.071      0.567          0          0         0         0
228-1048090-1_int        7.071      0.567          0          0         0         0
m1026327                  6.65     0.5333          0          0         0         0
l2841636                 6.645     0.5329          0          0         0         0
l2990826                 12.38     0.9928     0.1095     0.8848 1.438E-015 1.162E-014
l2911069                 6.579     0.5276          0          0         0         0
l2948732                 6.579     0.5276          0          0         0         0
m1108260                 6.956     0.5578          0          0         0         0
m1108259                 6.956     0.5578          0          0         0         0
m1069312                 7.006     0.5618          0          0         0         0
p873800                  7.006     0.5618          0          0         0         0
m1186078                 7.359     0.5901          0          0         0         0
l2876797                  11.7     0.9386     0.2782      2.377 1.364E-015 1.166E-014
r18241                    11.7     0.9383     0.2805      2.398 1.364E-015 1.166E-014
l3254227                 6.893     0.5527          0          0         0         0
m3037455                  7.35     0.5894          0          0         0         0
l3217052                  7.35     0.5894          0          0         0         0
p827500                  6.532     0.5238          0          0         0         0
l2822861                 6.531     0.5238          0          0         0         0
m1047724                 11.75     0.9423     0.2459      2.093 1.819E-015 1.548E-014
m1047722                 11.75     0.9421     0.2478      2.109 1.875E-015 1.596E-014
d5534969-2_int           12.16     0.9754     0.1665      1.369 1.875E-015 1.542E-014
e182729                  12.16     0.9754     0.1665      1.369 1.875E-015 1.542E-014
n1134477                 12.16     0.9755      0.166      1.365 1.364E-015 1.121E-014
m1166355                 7.326     0.5875          0          0         0         0
l2858200                 7.326     0.5875          0          0         0         0
m1047699                 11.78     0.9443     0.2316      1.967 1.364E-015 1.159E-014
l2935554                 11.77     0.9438     0.2349      1.996 1.875E-015 1.593E-014
m1047292                 11.89     0.9534     0.1423      1.197 1.438E-015 1.21E-014
l2766750                 7.054     0.5657          0          0         0         0
l3649300                 6.555     0.5256          0          0         0         0
m1047733                 6.799     0.5452          0          0         0         0
l3066804                 6.799     0.5452          0          0         0         0
m3327098                 6.489     0.5203          0          0         0         0
l2691943                 6.488     0.5203          0          0         0         0
p829986                  7.277     0.5835          0          0         0         0
m1125904                 7.277     0.5835          0          0         0         0
n1139550                 6.409      0.514          0          0         0         0
m1026307                 6.586     0.5282          0          0         0         0
l3085388                 6.586     0.5282          0          0         0         0
l3233413                 7.072     0.5671          0          0         0         0
l3122827                 6.432     0.5158          0          0         0         0
l2954355                  6.43     0.5156          0          0         0         0
p827576                  6.609       0.53          0          0         0         0
n1139256                 6.609       0.53          0          0         0         0
l2952003                 12.39     0.9935     0.1095     0.8837 1.819E-015 1.468E-014
n1136359                 7.305     0.5858          0          0         0         0
l3008237                 7.305     0.5858          0          0         0         0
m1089102                 7.082     0.5679          0          0         0         0
m1089096                  7.08     0.5677          0          0         0         0
p895102                  7.134     0.5721          0          0         0         0
m1125978                 7.134     0.5721          0          0         0         0
m1026706                 11.63     0.9328     0.2037      1.751 1.875E-015 1.612E-014
n1140825                 11.63     0.9328     0.2037      1.751 1.655E-015 1.423E-014
l3141399                 7.049     0.5653          0          0         0         0
m1069210                 7.049     0.5653          0          0         0         0
m3763624                 11.81      0.947     0.2121      1.796 1.364E-015 1.155E-014
p1121283                 7.139     0.5725          0          0         0         0
m1142839                 12.62      1.012    0.05861     0.4643 1.819E-015 1.441E-014
l3067507                 7.353     0.5897          0          0         0         0
n1141478                 7.221     0.5791          0          0         0         0
m1142826                 7.221     0.5791          0          0         0         0
m1108334                 7.267     0.5828          0          0         0         0
l2692664                 7.267     0.5828          0          0         0         0
l2823544                 6.994     0.5608          0          0         0         0
226-23751                12.58      1.008    0.05592     0.4447 1.875E-015 1.491E-014
p827536                  6.512     0.5222          0          0         0         0
n1137999                 6.512     0.5222          0          0         0         0
l3027157                 11.72     0.9397     0.2674      2.282 1.438E-015 1.227E-014
l2973155                 11.71     0.9392     0.2726      2.328 1.655E-015 1.413E-014
m1186052                  12.8      1.026    0.03426     0.2676 2.096E-015 1.638E-014
198-5320                  12.8      1.026    0.03426     0.2676 1.592E-015 1.243E-014
l3216346                 6.427     0.5154          0          0         0         0
l2858163                 6.426     0.5153          0          0         0         0
m1047813                 6.496      0.521          0          0         0         0
l2973149                 6.496      0.521          0          0         0         0
l3086079                  7.37      0.591          0          0         0         0
m1069574                 6.884      0.552          0          0         0         0
l2710530                 6.884      0.552          0          0         0         0
m1069285                 6.529     0.5236          0          0         0         0
m4113348                 6.529     0.5236          0          0         0         0
l2879074                 6.405     0.5136          0          0         0         0
m1026916                 6.668     0.5347          0          0         0         0
e193509                  12.62      1.012    0.05877     0.4655 1.819E-015 1.441E-014
m1047794                 6.522      0.523          0          0         0         0
m1047796                 6.521      0.523          0          0         0         0
l3027116                 11.91      0.955     0.1349      1.133 1.875E-015 1.574E-014
l2929261                 6.573     0.5271          0          0         0         0
m1166375                  12.7      1.019    0.05041     0.3968 1.875E-015 1.476E-014
p895080                  7.318     0.5869          0          0         0         0
l2973156                 6.561     0.5261          0          0         0         0
m1069311                 11.61     0.9307     0.1817      1.565 1.875E-015 1.615E-014
m1069208                 7.063     0.5664          0          0         0         0
l2691945                 7.063     0.5664          0          0         0         0
n1140820                  6.71     0.5381          0          0         0         0
m1026468                 6.753     0.5415          0          0         0         0
p901909                  6.753     0.5415          0          0         0         0
m1026662                 11.62      0.932     0.2017      1.735 1.224E-015 1.054E-014
n1141473                 6.426     0.5154          0          0         0         0
m1026941                 6.509      0.522          0          0         0         0
m1026942                 6.509      0.522          0          0         0         0
n1137985                  6.56      0.526          0          0         0         0
m1047713                 11.77     0.9435     0.2367      2.012 1.875E-015 1.594E-014
m1047720                 11.76     0.9429     0.2413      2.052 1.819E-015 1.547E-014
m1108298                 12.57      1.008    0.05604     0.4459 2.046E-015 1.628E-014
196-36167                12.57      1.008    0.05611     0.4465 2.274E-015 1.809E-014
e183472                  12.42     0.9957     0.1034     0.8325 1.655E-015 1.333E-014
l2989566                  12.4     0.9947     0.1068     0.8606 1.655E-015 1.334E-014
m1010007                 6.365     0.5104          0          0         0         0
m1010004                 6.364     0.5103          0          0         0         0
p862322                  12.39     0.9932     0.1095     0.8841 1.438E-015 1.161E-014
m1089188                 7.147     0.5731          0          0         0         0
m1089189                 7.146     0.5731          0          0         0         0
l2972704                  7.08     0.5677          0          0         0         0
l3263051                 7.079     0.5677          0          0         0         0
n1139544                 7.049     0.5653          0          0         0         0
l2897776                 7.049     0.5653          0          0         0         0
n1230122                 7.065     0.5665          0          0         0         0
l2689726                  6.38     0.5116          0          0         0         0
m1142868                 12.58      1.009    0.06864     0.5457 2.096E-015 1.667E-014
m1142869                 12.57      1.008     0.0697     0.5544 2.274E-015 1.809E-014
l2767414                 7.281     0.5839          0          0         0         0
m1027027                 7.031     0.5638          0          0         0         0
l3270853                 7.031     0.5638          0          0         0         0
m1125982                 7.133      0.572          0          0         0         0
m1069572                 6.884      0.552          0          0         0         0
l3066826                 6.884      0.552          0          0         0         0
m1166356                 7.326     0.5875          0          0         0         0
l2730187                 7.326     0.5875          0          0         0         0
l3122825                 6.806     0.5458          0          0         0         0
l2991920                 6.806     0.5458          0          0         0         0
n1134474                 12.19     0.9776     0.1589      1.303 1.438E-015 1.18E-014
m1069496                 12.19     0.9773       0.16      1.313 1.592E-015 1.306E-014
l3122826                   6.9     0.5533          0          0         0         0
m1047358                   6.9     0.5533          0          0         0         0
l3142078                 6.955     0.5577          0          0         0         0
l2879752                 6.955     0.5577          0          0         0         0
p850072                  12.38     0.9929     0.1095     0.8847 1.592E-015 1.286E-014
221-311609               12.38     0.9929     0.1095     0.8847 1.364E-015 1.102E-014
m1027023                 11.59     0.9298     0.2343       2.02 1.364E-015 1.177E-014
l3122815                 6.634      0.532          0          0         0         0
l2724120                 7.074     0.5673          0          0         0         0
m1069149                 7.074     0.5673          0          0         0         0
l2729429                 6.494     0.5207          0          0         0         0
l3215549                 6.515     0.5224          0          0         0         0
l2897800                 6.509      0.522          0          0         0         0
l3027156                 7.163     0.5745          0          0         0         0
l2860481                 7.163     0.5744          0          0         0         0
n1140828                 11.63     0.9326     0.2037      1.752 1.364E-015 1.173E-014
m1026708                 11.63     0.9326     0.2037      1.752 1.875E-015 1.612E-014
m1126020                 6.992     0.5607          0          0         0         0
m1126023                 6.992     0.5607          0          0         0         0
m1026906                 6.518     0.5227          0          0         0         0
m1209824                 7.383     0.5921          0          0         0         0
m1209828                 7.373     0.5912          0          0         0         0
l3195315                 7.008      0.562          0          0         0         0
m1069590                 6.859       0.55          0          0         0         0
m1069595                 6.853     0.5496          0          0         0         0
m1027004                 6.503     0.5215          0          0         0         0
l2897765                 6.501     0.5213          0          0         0         0
m1047314                  6.87     0.5509          0          0         0         0
n1137961                 6.869     0.5509          0          0         0         0
l2876814                 11.66     0.9349     0.2437       2.09 1.364E-015 1.17E-014
m1026834                 11.65     0.9345      0.245      2.103 1.819E-015 1.561E-014
m1008743                 6.581     0.5277          0          0         0         0
m1008742                  6.58     0.5277          0          0         0         0
p827525                  11.71     0.9391     0.2327      1.987 1.592E-015 1.359E-014
m1026902                  11.7     0.9386     0.2334      1.994 1.819E-015 1.554E-014
n1144663                  12.2      0.978     0.1575      1.291 1.819E-015 1.491E-014
m1089215                 12.19     0.9779      0.158      1.296 1.224E-015 1.004E-014
...